LAMMPS (29 Sep 2021 - Update 2)
# PART A - ENERGY MINIMIZATION
# 1) Initialization
units lj
dimension 3
atom_style atomic
pair_style lj/cut 2.5
boundary p p p

# 2) System definition
region simulation_box block -20 20 -20 20 -20 20
create_box 2 simulation_box
Created orthogonal box = (-20.000000 -20.000000 -20.000000) to (20.000000 20.000000 20.000000)
create_atoms 1 random 1500 341341 simulation_box
Created 1500 atoms
create_atoms 2 random 100 127569 simulation_box
Created 100 atoms

# 3) Simulation settings
mass 1 1
mass 2 1
pair_coeff 1 1 1.0 1.0
pair_coeff 2 2 0.5 3.0
neigh_modify every 1 delay 5 check yes

# 4) Visualization
thermo 10

# 5) Run
minimize 1.0e-4 1.0e-6 1000 10000
  update every 1 steps, delay 0 steps, check yes
Step Temp E_pair E_mol TotEng Press
0            0     78840982            0     78840982      7884122
Loop time of 0.145216 on 8 procs for 388 steps with 1600 atoms

Minimization stats:
  Stopping criterion = energy tolerance
  Energy initial, next-to-last, final =
  Force two-norm initial, final = 1.6033542e+13 8.2846337
  Force max component initial, final = 1.0518609e+13 2.8367743
  Final line search alpha, max atom move = 0.0010937871 0.0031028271
  Iterations, force evaluations = 388 787

# PART B - MOLECULAR DYNAMICS
# 4) Visualization
thermo 1000
variable kinetic_energy equal ke
variable potential_energy equal pe
variable pressure equal press
fix myat1 all ave/time 10 1 10 v_kinetic_energy v_potential_energy file energy.dat

# 5) Run
fix mynve all nve
fix mylgv all langevin 1.0 1.0 0.1 1530917
timestep 0.005
run 10000
Step Temp E_pair E_mol TotEng Press
388            0  -0.95476642            0  -0.95476642 -0.00030483441
Averages over the last 6 of 12 rows, steps 6000 to 10388:
Temp E_pair E_mol TotEng Press
0.999553 -0.241568 0 1.25682 0.0231361
Loop time of 1.90371 on 8 procs for 10000 steps with 1600 atoms
